********************************************************************************
* Library          : inv
* Cell             : inv
* View             : schematic
* View Search List : auCdl schematic symbol
* View Stop List   : auCdl
********************************************************************************
.subckt inv in out
MM0 out in vdd! vdd! P w=0.19u l=0.1u nf=1 m=1
MM1 out in gnd! gnd! N w=0.19u l=0.1u nf=1 m=1
.ends inv

